power-flow-agent/results/ieee14/2026-09-21/gpt-5.6-sol/llm_only_structured/traces/20_case14-multistep-038-s0.transcript.txt
==============================================================================
TRANSCRIPT  llm_only:structured  |  openrouter:openai/gpt-5.6-sol  |  case14  |  case14-multistep-038-s0  run 0
==============================================================================
date: 2026-09-21   seed: 0   difficulty: multistep   tool variant: v1

[system]   (hash 1b4712c641b5, from methods/llm_only_structured/method.json prompt_files)
You are a power system analysis expert. You need to calculate AC power flow results based on test system data provided by the user.

Important Constraints:

- You must strictly output JSON (no extra text, no Markdown blocks).

- Do not output NaN/Infinity; all values ​​must be finite real numbers.

- If you cannot complete the calculation, set `converged` to false and output the structure you can provide (an empty array is acceptable).

[user]
Load the IEEE 14-bus system, set the active load at bus 6 to 7 MW, set the active load at bus 4 to 40.3 MW, and finally rerun the power flow, then report the bus with the lowest voltage magnitude.
(the user message also carries the case tables and the output schema; rebuild it with: run.py show-prompt --method llm_only:structured)

[assistant]
{"converged":true,"bus_voltages":[{"bus_id":1,"vm_pu":1.06,"va_deg":0.0},{"bus_id":2,"vm_pu":1.045,"va_deg":-4.758},{"bus_id":3,"vm_pu":1.01,"va_deg":-12.528},{"bus_id":4,"vm_pu":1.0192,"va_deg":-9.79},{"bus_id":5,"vm_pu":1.0213,"va_deg":-8.31},{"bus_id":6,"vm_pu":1.07,"va_deg":-13.281},{"bus_id":7,"vm_pu":1.064,"va_deg":-12.765},{"bus_id":8,"vm_pu":1.09,"va_deg":-12.765},{"bus_id":9,"vm_pu":1.0586,"va_deg":-14.225},{"bus_id":10,"vm_pu":1.0536,"va_deg":-14.3},{"bus_id":11,"vm_pu":1.0596,"va_deg":-13.97},{"bus_id":12,"vm_pu":1.0582,"va_deg":-14.14},{"bus_id":13,"vm_pu":1.0535,"va_deg":-14.21},{"bus_id":14,"vm_pu":1.039,"va_deg":-15.15}],"line_flows":[{"line_id":0,"p_from_mw":150.258,"loading_percent":0.0},{"line_id":1,"p_from_mw":71.876,"loading_percent":0.0},{"line_id":2,"p_from_mw":73.482,"loading_percent":0.0},{"line_id":3,"p_from_mw":53.179,"loading_percent":0.0},{"line_id":4,"p_from_mw":39.111,"loading_percent":0.0},{"line_id":5,"p_from_mw":-26.612,"loading_percent":0.0},{"line_id":6,"p_from_mw":-58.736,"loading_percent":0.0},{"line_id":7,"p_from_mw":8.229,"loading_percent":0.0},{"line_id":8,"p_from_mw":7.119,"loading_percent":0.0},{"line_id":9,"p_from_mw":18.449,"loading_percent":0.0},{"line_id":10,"p_from_mw":3.97,"loading_percent":0.0},{"line_id":11,"p_from_mw":8.204,"loading_percent":0.0},{"line_id":12,"p_from_mw":-4.374,"loading_percent":0.0},{"line_id":13,"p_from_mw":1.137,"loading_percent":0.0},{"line_id":14,"p_from_mw":6.589,"loading_percent":0.0},{"line_id":100000,"p_from_mw":27.474,"loading_percent":0.0},{"line_id":100001,"p_from_mw":15.476,"loading_percent":0.0},{"line_id":100002,"p_from_mw":40.797,"loading_percent":0.0},{"line_id":100003,"p_from_mw":0.0,"loading_percent":0.0},{"line_id":100004,"p_from_mw":27.474,"loading_percent":0.0}],"total_generation_mw":261.53,"total_load_mw":249.189658,"total_loss_mw":12.340342}
